---- qbsp / ericw-tools v0.18.1 ----
Input file: Void.map
Output file: Void.bsp

---- LoadMapFile ----
*** WARNING 06: No info_player_deathmatch entities in level
            6 faces
            1 brushes
            3 entities
            1 unique texnames
            3 texinfo

Opened WAD: C:/QuakeDev/wads/START.WAD
Processing hull 0...
---- Brush_LoadEntity ----
            1 brushes
            6 planes
---- CSGFaces ----
            6 brushfaces
            6 csgfaces
            6 mergedfaces
---- SolidBSP ----
            6 split nodes
            1 solid leafs
            6 empty leafs
            0 water leafs
            0 detail leafs
            0 detail illusionary leafs
            0 detail fence leafs
            0 illusionary visblocker leafs
           30 leaffaces
           30 nodefaces
---- Portalize ----
            6 vis leafs
            6 vis clusters
           12 vis portals
---- FillOutside ----
*** WARNING 10: Reached occupant at (0 0 40), no filling performed.
Leak file written to Void.pts
---- MakeFaceEdges ----
---- GrowRegions ----
Processing hull 1...
*** WARNING 19: No entities in empty space -- no filling performed (hull 1)
Processing hull 2...
*** WARNING 19: No entities in empty space -- no filling performed (hull 2)
---- WriteBSPFile ----
Wrote Void.bsp
           17 planes              340
           40 vertexes            480
            6 nodes               144
            3 texinfo             120
           30 faces               600
           12 clipnodes            96
            7 leafs               196
           30 marksurfaces         60
          120 surfedges           480
           73 edges               292
            1 textures           5936
              lightdata             0
              visdata               0
              entdata             165

0.119 seconds elapsed
Peak memory usage: 120192 (117.4k)
